# This file was generated by FINDSYM
# Harold T. Stokes, Branton J. Campbell, Dorian M. Hatch
# Brigham Young University, Provo, Utah, USA
 
data_findsym-output
 
_symmetry_space_group_name_H-M 'C 1 2/m 1'
_symmetry_Int_Tables_number 12
 
_cell_length_a       5.57092
_cell_length_b       9.50174
_cell_length_c       4.69100
_cell_angle_alpha   90.00000
_cell_angle_beta    47.40361
_cell_angle_gamma   90.00000
 
loop_
_space_group_symop_operation_xyz
x,y,z
-x,y,-z
-x,-y,-z
x,-y,z
x+1/2,y+1/2,z
-x+1/2,y+1/2,-z
-x+1/2,-y+1/2,-z
x+1/2,-y+1/2,z
 
loop_
_atom_site_label
_atom_site_type_symbol
_atom_site_fract_x
_atom_site_fract_y
_atom_site_fract_z
_atom_site_occupancy
Ba1 Ba   0.00000  -0.18780   0.00000   1.00000
Si1 Si   0.41347   0.00000   0.29396   1.00000
H1  H    0.04759   0.00000  -0.36849   1.00000
H2  H    0.41830   0.14883   0.39171   1.00000
H3  H    0.20945   0.41022  -0.11660   1.00000
H4  H    0.28740   0.00000  -0.24747   1.00000
H5  H    0.00000  -0.22947   0.50000   1.00000
H6  H    0.00000  -0.14850   0.50000   1.00000
 
# end_of_file
